test/benchmarks/psse/PSS2A/3_BUS_PSS2A.raw
0, 100.00, 33, 0, 1, 50.00 /
Three Bus Test System for PSS2A.
0 / END OF SYSTEM-WIDE DATA, BEGIN BUS DATA
1, 'GEN', 20.0000, 3, 1, 1, 1, 1.00000, -55.3150, 1.1, 0.9, 1.1, 0.9
2, 'LOAD', 275.0000, 1, 1, 1, 1, 1.04785, -63.3086, 1.1, 0.9, 1.1, 0.9
3, 'LOAD_GEN', 275.0000, 2, 1, 1, 1, 1.01500, -63.4538, 1.1, 0.9, 1.1, 0.9
0 / END OF BUS DATA, BEGIN LOAD DATA
2, '1', 1, 1, 1, 455.0, 1.0, 0.000, 0.000, 0.000, 0.000, 1, 1, 0
3, '1', 1, 1, 1, 140.0, 95.0, 0.000, 0.000, 0.000, 0.000, 1, 1, 0
0 / END OF LOAD DATA, BEGIN FIXED SHUNT DATA
0 / END OF FIXED SHUNT DATA, BEGIN GENERATOR DATA
1, '1', 500.000, 50.693, 290.564, -290.564, 1.00000, 1, 666.600, 0.00000, 0.24000, 0.00000, 0.00000, 1.00000, 1, 100.0, 800.000, 0.000, 1, 1.0, 0, 1.0, 0, 1.0, 0, 1.0, 1, 1.0000
3, '1', 100.000, 22.648, 320.000, -180.000, 1.01500, 3, 500.000, 0.00000, 0.24000, 0.00000, 0.00000, 1.00000, 1, 100.0, 160.000, 0.000, 1, 1.0, 0, 1.0, 0, 1.0, 0, 1.0, 1, 1.0000
0 / END OF GENERATOR DATA, BEGIN BRANCH DATA
2, 3, '1', 0.02300, 0.15000, 0.56000, 0.0, 0.0, 0.0, 0.0, 0.0, 0.0, 0.0, 1, 1, 0.0, 1, 1.0, 0, 1.0, 0, 1.0, 0, 1.0
2, 3, '2', 0.02300, 0.15000, 0.56000, 0.0, 0.0, 0.0, 0.0, 0.0, 0.0, 0.0, 1, 1, 0.0, 1, 1.0, 0, 1.0, 0, 1.0, 0, 1.0
0 / END OF BRANCH DATA, BEGIN TRANSFORMER DATA
1, 2, 0, '1', 1, 1, 1, 0.0, 0.0, 2, ' ', 1, 1, 1.0, 0, 1.0, 0, 1.0, 0, 1.0, '            '
0.00000, 0.02550, 100.00
0.95240, 0.0, 0.0, 0.0, 0.0, 0.0, 0, 0, 1.10000, 0.90000, 1.10000, 0.90000, 33, 0, 0.00000, 0.00000, 0.0
1.00000, 0.000
0 / END OF TRANSFORMER DATA
Q